Version 4
SHEET 1 1948 2752
WIRE -192 1472 -480 1472
WIRE -32 1472 -192 1472
WIRE -32 1536 -32 1472
WIRE -32 1536 -160 1536
WIRE 144 1536 -32 1536
WIRE 960 1568 784 1568
WIRE 1136 1568 960 1568
WIRE -480 1600 -480 1472
WIRE 784 1632 784 1568
WIRE 1136 1632 1136 1568
WIRE -160 1648 -160 1632
WIRE 144 1648 144 1632
WIRE 144 1648 -160 1648
WIRE -160 1664 -160 1648
WIRE 144 1664 144 1648
WIRE -1264 1712 -1312 1712
WIRE -1088 1712 -1152 1712
WIRE 736 1712 720 1712
WIRE 1088 1712 1072 1712
WIRE -32 1760 -160 1760
WIRE 144 1760 -32 1760
WIRE 784 1760 784 1728
WIRE 944 1760 784 1760
WIRE 1136 1760 1136 1728
WIRE 1136 1760 944 1760
WIRE -480 1824 -480 1696
WIRE -208 1824 -480 1824
WIRE -32 1824 -32 1760
WIRE -32 1824 -208 1824
WIRE 944 1824 944 1760
WIRE 944 1824 784 1824
WIRE 1136 1824 944 1824
WIRE -208 1856 -208 1824
WIRE -208 1856 -480 1856
WIRE -32 1856 -208 1856
WIRE 784 1872 784 1824
WIRE -32 1888 -32 1856
WIRE -32 1888 -160 1888
WIRE 80 1888 -32 1888
WIRE 1136 1920 1136 1824
WIRE 736 1952 720 1952
WIRE -480 1984 -480 1856
WIRE -1264 2000 -1312 2000
WIRE -1088 2000 -1152 2000
WIRE 1088 2000 1072 2000
WIRE -160 2016 -160 1984
WIRE 80 2016 80 1984
WIRE 80 2016 -160 2016
WIRE 784 2016 784 1968
WIRE -160 2048 -160 2016
WIRE 80 2048 80 2016
WIRE 736 2096 720 2096
WIRE 784 2144 784 2112
WIRE 992 2144 784 2144
WIRE 1136 2144 1136 2016
WIRE 1136 2144 992 2144
WIRE -160 2160 -160 2144
WIRE -32 2160 -160 2160
WIRE 80 2160 80 2144
WIRE 80 2160 -32 2160
WIRE -480 2192 -480 2080
WIRE -208 2192 -480 2192
WIRE -32 2192 -32 2160
WIRE -32 2192 -208 2192
WIRE 992 2208 992 2144
WIRE 1376 2208 992 2208
WIRE 1680 2208 1488 2208
WIRE -208 2256 -208 2192
WIRE 208 2256 -208 2256
WIRE 368 2256 320 2256
WIRE 992 2304 992 2208
WIRE 992 2304 768 2304
WIRE 1216 2304 992 2304
WIRE -208 2320 -208 2256
WIRE -208 2320 -480 2320
WIRE 48 2320 -208 2320
WIRE 1216 2336 1216 2304
WIRE 1216 2336 1088 2336
WIRE 1344 2336 1216 2336
WIRE -1264 2352 -1312 2352
WIRE -1088 2352 -1152 2352
WIRE -480 2352 -480 2320
WIRE 48 2352 48 2320
WIRE 768 2368 768 2304
WIRE 1040 2416 1024 2416
WIRE 1296 2416 1280 2416
WIRE 720 2448 704 2448
WIRE -480 2464 -480 2448
WIRE -480 2464 -640 2464
WIRE -336 2464 -480 2464
WIRE 48 2464 48 2448
WIRE 48 2464 -80 2464
WIRE 176 2464 48 2464
WIRE 1088 2464 1088 2432
WIRE 1216 2464 1088 2464
WIRE 1344 2464 1344 2432
WIRE 1344 2464 1216 2464
WIRE 768 2528 768 2464
WIRE 1216 2528 1216 2464
WIRE -640 2592 -640 2560
WIRE -336 2592 -336 2560
WIRE -80 2592 -80 2560
WIRE 176 2592 176 2560
WIRE 720 2608 704 2608
WIRE 1168 2608 1152 2608
WIRE -496 2688 -640 2688
WIRE -336 2688 -496 2688
WIRE 48 2688 -80 2688
WIRE 176 2688 48 2688
WIRE 768 2688 768 2624
WIRE 992 2688 768 2688
WIRE 1216 2688 1216 2624
WIRE 1216 2688 992 2688
FLAG -192 1472 VDD
FLAG -160 1584 VDD
FLAG -160 1712 VDD
FLAG 144 1712 VDD
FLAG 144 1584 VDD
FLAG -480 1648 VDD
FLAG -160 1936 VDD
FLAG 80 1936 VDD
FLAG 80 2096 VDD
FLAG -160 2096 VDD
FLAG -480 2032 VDD
FLAG 256 2224 VDD
FLAG -640 2512 0
FLAG -640 2640 0
FLAG -336 2512 0
FLAG -336 2640 0
FLAG 176 2640 0
FLAG 176 2512 0
FLAG -80 2512 0
FLAG -80 2640 0
FLAG 48 2400 0
FLAG -480 2400 0
FLAG 256 2288 0
FLAG -496 2688 0
FLAG 48 2688 0
FLAG -528 1680 A
FLAG -528 2432 A
FLAG -1216 1680 VDD
FLAG -1216 1968 VDD
FLAG -1216 2320 VDD
FLAG -1216 1744 0
FLAG -1216 2032 0
FLAG -1216 2384 0
FLAG -1088 1712 Abar
FLAG -1088 2000 Bbar
FLAG -1088 2352 Cbar
FLAG -528 2064 Abar
FLAG 0 2432 Abar
FLAG -208 1744 Bbar
FLAG -208 2128 Bbar
FLAG -384 2544 Bbar
FLAG 128 2544 Bbar
FLAG -208 1616 B
FLAG -208 1968 B
FLAG -688 2544 B
FLAG -128 2544 B
FLAG 96 1616 CIN
FLAG 32 2128 CIN
FLAG -688 2672 CIN
FLAG 96 1744 Cbar
FLAG 32 1968 Cbar
FLAG -128 2672 Cbar
FLAG -384 2672 Cbar
FLAG 368 2256 SUM
IOPIN 368 2256 Out
FLAG 128 2672 CIN
FLAG 960 1568 VDD
FLAG 784 1680 VDD
FLAG 1136 1680 VDD
FLAG 1136 1968 VDD
FLAG 784 2064 VDD
FLAG 784 1920 VDD
FLAG 768 2416 0
FLAG 768 2576 0
FLAG 1216 2576 0
FLAG 1088 2384 0
FLAG 1344 2384 0
FLAG 992 2688 0
FLAG 720 1712 A
FLAG 720 1952 A
FLAG 704 2448 A
FLAG 1024 2416 A
FLAG 1072 1712 B
FLAG 720 2096 B
FLAG 704 2608 B
FLAG 1280 2416 B
FLAG 1152 2608 CIN
FLAG 1072 2000 CIN
FLAG 1680 2208 COUT
IOPIN 1680 2208 Out
FLAG 1424 2176 VDD
FLAG 1424 2240 0
FLAG -1312 1712 A
IOPIN -1312 1712 In
FLAG -1312 2000 B
IOPIN -1312 2000 In
FLAG -1312 2352 CIN
IOPIN -1312 2352 In
SYMBOL nmos4 -528 2352 R0
SYMATTR InstName M1
SYMATTR Value2 l=0.6u w=5.4u
SYMBOL nmos4 -688 2464 R0
SYMATTR InstName M2
SYMATTR Value2 l=0.6u w=5.4u
SYMBOL nmos4 -688 2592 R0
SYMATTR InstName M4
SYMATTR Value2 l=0.6u w=5.4u
SYMBOL nmos4 -384 2592 R0
SYMATTR InstName M5
SYMATTR Value2 l=0.6u w=5.4u
SYMBOL nmos4 0 2352 R0
SYMATTR InstName M6
SYMATTR Value2 l=0.6u w=5.4u
SYMBOL nmos4 -128 2464 R0
SYMATTR InstName M7
SYMATTR Value2 l=0.6u w=5.4u
SYMBOL nmos4 128 2464 R0
SYMATTR InstName M8
SYMATTR Value2 l=0.6u w=5.4u
SYMBOL nmos4 -128 2592 R0
SYMATTR InstName M9
SYMATTR Value2 l=0.6u w=5.4u
SYMBOL nmos4 128 2592 R0
SYMATTR InstName M10
SYMATTR Value2 l=0.6u w=5.4u
SYMBOL pmos4 -208 1536 R0
WINDOW 0 56 24 Left 2
SYMATTR InstName M11
SYMATTR Value2 l=0.6u w=5.4u
SYMBOL pmos4 -208 1664 R0
WINDOW 0 54 22 Left 2
SYMATTR InstName M12
SYMATTR Value2 l=0.6u w=5.4u
SYMBOL pmos4 96 1536 R0
WINDOW 0 56 15 Left 2
WINDOW 3 54 77 Left 2
SYMATTR InstName M13
SYMATTR Value2 l=0.6u w=5.4u
SYMBOL pmos4 96 1664 R0
WINDOW 0 56 14 Left 2
WINDOW 3 56 83 Left 2
SYMATTR InstName M14
SYMATTR Value2 l=0.6u w=5.4u
SYMBOL pmos4 -528 1600 R0
WINDOW 0 56 11 Left 2
WINDOW 3 59 80 Left 2
SYMATTR InstName M15
SYMATTR Value2 l=0.6u w=5.4u
SYMBOL pmos4 -528 1984 R0
WINDOW 0 56 9 Left 2
WINDOW 3 64 80 Left 2
SYMATTR InstName M16
SYMATTR Value2 l=0.6u w=5.4u
SYMBOL pmos4 -208 1888 R0
WINDOW 0 58 23 Left 2
SYMATTR InstName M17
SYMATTR Value2 l=0.6u w=5.4u
SYMBOL pmos4 -208 2048 R0
WINDOW 0 56 20 Left 2
SYMATTR InstName M18
SYMATTR Value2 l=0.6u w=5.4u
SYMBOL pmos4 32 1888 R0
WINDOW 0 60 22 Left 2
SYMATTR InstName M19
SYMATTR Value2 l=0.6u w=5.4u
SYMBOL pmos4 32 2048 R0
WINDOW 0 56 19 Left 2
SYMATTR InstName M20
SYMATTR Value2 l=0.6u w=5.4u
SYMBOL Inverter 224 2288 R0
SYMATTR InstName X1
SYMBOL Inverter -1248 1744 R0
SYMATTR InstName X2
SYMBOL Inverter -1248 2032 R0
SYMATTR InstName X3
SYMBOL Inverter -1248 2384 R0
SYMATTR InstName X4
SYMBOL nmos4 -384 2464 R0
SYMATTR InstName M3
SYMATTR Value2 l=0.6u w=5.4u
SYMBOL pmos4 736 1632 R0
WINDOW 0 58 18 Left 2
SYMATTR InstName M21
SYMATTR Value2 l=1.2u w=9u
SYMBOL pmos4 1088 1632 R0
WINDOW 0 56 16 Left 2
SYMATTR InstName M22
SYMATTR Value2 l=1.2u w=9u
SYMBOL pmos4 736 1872 R0
WINDOW 0 56 23 Left 2
SYMATTR InstName M23
SYMATTR Value2 l=1.2u w=9u
SYMBOL pmos4 736 2016 R0
SYMATTR InstName M24
SYMATTR Value2 l=1.2u w=9u
SYMBOL pmos4 1088 1920 R0
WINDOW 0 56 18 Left 2
SYMATTR InstName M25
SYMATTR Value2 l=1.8u w=9u
SYMBOL nmos4 720 2368 R0
SYMATTR InstName M26
SYMATTR Value2 l=0.6u w=3.6u
SYMBOL nmos4 720 2528 R0
SYMATTR InstName M27
SYMATTR Value2 l=0.6u w=3.6u
SYMBOL nmos4 1040 2336 R0
SYMATTR InstName M28
SYMATTR Value2 l=0.6u w=3.6u
SYMBOL nmos4 1296 2336 R0
SYMATTR InstName M29
SYMATTR Value2 l=0.6u w=3.6u
SYMBOL nmos4 1168 2528 R0
SYMATTR InstName M30
SYMATTR Value2 l=0.6u w=3.6u
SYMBOL Inverter 1392 2240 R0
SYMATTR InstName X5
