Version 4
SHEET 1 880 680
WIRE 112 80 112 48
WIRE 144 80 144 48
WIRE 256 80 256 48
WIRE 288 80 288 48
WIRE 400 80 400 48
WIRE 432 80 432 48
WIRE 560 80 560 48
WIRE 592 80 592 48
WIRE 208 128 176 128
WIRE 352 128 320 128
WIRE 496 128 464 128
WIRE 656 128 624 128
WIRE 208 208 208 128
WIRE 256 208 256 176
WIRE 256 208 208 208
WIRE 352 208 352 128
WIRE 400 208 400 176
WIRE 400 208 352 208
WIRE 496 208 496 128
WIRE 560 208 560 176
WIRE 560 208 496 208
WIRE 112 240 112 176
WIRE 144 240 144 176
WIRE 256 240 256 208
WIRE 288 240 288 176
WIRE 400 240 400 208
WIRE 432 240 432 176
WIRE 560 240 560 208
WIRE 592 240 592 176
FLAG 560 48 A0
IOPIN 560 48 In
FLAG 400 48 A1
IOPIN 400 48 In
FLAG 256 48 A2
IOPIN 256 48 In
FLAG 112 48 A3
IOPIN 112 48 In
FLAG 144 48 B3
IOPIN 144 48 In
FLAG 288 48 B2
IOPIN 288 48 In
FLAG 432 48 B1
IOPIN 432 48 In
FLAG 592 48 B0
IOPIN 592 48 In
FLAG 656 128 CIN
IOPIN 656 128 In
FLAG 592 240 S0
IOPIN 592 240 Out
FLAG 432 240 S1
IOPIN 432 240 Out
FLAG 288 240 S2
IOPIN 288 240 Out
FLAG 144 240 S3
IOPIN 144 240 Out
FLAG 256 240 C3
IOPIN 256 240 Out
FLAG 112 240 COUT
IOPIN 112 240 Out
FLAG 400 240 C2
IOPIN 400 240 Out
FLAG 560 240 C1
IOPIN 560 240 Out
FLAG 368 80 VDD
FLAG 528 80 VDD
FLAG 224 80 VDD
FLAG 80 80 VDD
FLAG -368 -128 VDD
FLAG -240 -128 CIN
FLAG -368 48 A3
FLAG -256 48 A2
FLAG -160 48 A1
FLAG -64 48 A0
FLAG -368 288 B3
FLAG -256 288 B2
FLAG -160 288 B1
FLAG -64 288 B0
FLAG -368 -48 0
FLAG -240 -48 0
FLAG -368 128 0
FLAG -256 128 0
FLAG -160 128 0
FLAG -64 128 0
FLAG -64 368 0
FLAG -160 368 0
FLAG -256 368 0
FLAG -368 368 0
SYMBOL FA 528 176 R0
SYMATTR InstName X1
SYMBOL FA 368 176 R0
SYMATTR InstName X2
SYMBOL FA 224 176 R0
SYMATTR InstName X3
SYMBOL FA 80 176 R0
SYMATTR InstName X4
SYMBOL voltage -368 -144 R0
WINDOW 123 0 0 Left 0
WINDOW 39 0 0 Left 0
SYMATTR InstName V1
SYMATTR Value 2.5
SYMBOL voltage -368 32 R0
WINDOW 123 0 0 Left 0
WINDOW 39 0 0 Left 0
WINDOW 3 -78 125 Left 0
SYMATTR InstName V2
SYMATTR Value PULSE(0 2.5 0 1n 1n 4u 8u)
SYMBOL voltage -368 272 R0
WINDOW 123 0 0 Left 0
WINDOW 39 0 0 Left 0
SYMATTR InstName V3
SYMATTR Value 0
SYMBOL voltage -256 32 R0
WINDOW 3 -56 121 Left 0
WINDOW 123 0 0 Left 0
WINDOW 39 0 0 Left 0
SYMATTR Value PULSE(0 2.5 1.5u 1n 1n 2u 6u)
SYMATTR InstName V4
SYMBOL voltage -256 272 R0
WINDOW 3 -11 124 Left 0
WINDOW 123 0 0 Left 0
WINDOW 39 0 0 Left 0
SYMATTR Value PULSE(0 2.5 2.7u 1n 1n 2.5u 5u)
SYMATTR InstName V5
SYMBOL voltage -160 32 R0
WINDOW 3 -58 97 Left 0
WINDOW 123 0 0 Left 0
WINDOW 39 0 0 Left 0
SYMATTR Value PULSE(2.5 0 1u 1n 1n 2u 4u)
SYMATTR InstName V6
SYMBOL voltage -160 272 R0
WINDOW 123 0 0 Left 0
WINDOW 39 0 0 Left 0
SYMATTR InstName V7
SYMATTR Value 2.5
SYMBOL voltage -64 32 R0
WINDOW 123 0 0 Left 0
WINDOW 39 0 0 Left 0
SYMATTR InstName V8
SYMATTR Value 0
SYMBOL voltage -64 272 R0
WINDOW 3 24 96 Left 0
WINDOW 123 0 0 Left 0
WINDOW 39 0 0 Left 0
SYMATTR Value PULSE(0 2.5 0 1n 1n 1u 2u)
SYMATTR InstName V9
SYMBOL voltage -240 -144 R0
WINDOW 123 0 0 Left 0
WINDOW 39 0 0 Left 0
SYMATTR InstName V10
SYMATTR Value PULSE(2.5 0 0 1n 1n 5u 10u)
TEXT -400 392 Left 2 !.tran 10u
