Version 4
SHEET 1 984 680
WIRE 336 80 336 48
WIRE 368 80 368 48
WIRE 480 80 480 48
WIRE 512 80 512 48
WIRE 624 80 624 48
WIRE 656 80 656 48
WIRE 784 80 784 48
WIRE 816 80 816 48
WIRE 432 128 400 128
WIRE 576 128 544 128
WIRE 720 128 688 128
WIRE 880 128 848 128
WIRE 432 208 432 128
WIRE 480 208 480 176
WIRE 480 208 432 208
WIRE 576 208 576 128
WIRE 624 208 624 176
WIRE 624 208 576 208
WIRE 720 208 720 128
WIRE 784 208 784 176
WIRE 784 208 720 208
WIRE 336 240 336 176
WIRE 368 240 368 176
WIRE 480 240 480 208
WIRE 512 240 512 176
WIRE 624 240 624 208
WIRE 656 240 656 176
WIRE 784 240 784 208
WIRE 816 240 816 176
FLAG 784 48 A0
IOPIN 784 48 In
FLAG 624 48 A1
IOPIN 624 48 In
FLAG 480 48 A2
IOPIN 480 48 In
FLAG 336 48 A3
IOPIN 336 48 In
FLAG 368 48 B3
IOPIN 368 48 In
FLAG 512 48 B2
IOPIN 512 48 In
FLAG 656 48 B1
IOPIN 656 48 In
FLAG 816 48 B0
IOPIN 816 48 In
FLAG 880 128 CIN
IOPIN 880 128 In
FLAG 816 240 S0
IOPIN 816 240 Out
FLAG 656 240 S1
IOPIN 656 240 Out
FLAG 512 240 S2
IOPIN 512 240 Out
FLAG 368 240 S3
IOPIN 368 240 Out
FLAG 480 240 C3
IOPIN 480 240 Out
FLAG 336 240 COUT
IOPIN 336 240 Out
FLAG 624 240 C2
IOPIN 624 240 Out
FLAG 784 240 C1
IOPIN 784 240 Out
FLAG 592 80 VDD
FLAG 752 80 VDD
FLAG 448 80 VDD
FLAG 304 80 VDD
FLAG -144 -128 VDD
FLAG -16 -128 CIN
FLAG -144 48 A3
FLAG -32 48 A2
FLAG 64 48 A1
FLAG 160 48 A0
FLAG -144 288 B3
FLAG -32 288 B2
FLAG 64 288 B1
FLAG 160 288 B0
FLAG -144 -48 0
FLAG -16 -48 0
FLAG -144 128 0
FLAG -32 128 0
FLAG 64 128 0
FLAG 160 128 0
FLAG 160 368 0
FLAG 64 368 0
FLAG -32 368 0
FLAG -144 368 0
SYMBOL FA 752 176 R0
SYMATTR InstName X1
SYMBOL FA 592 176 R0
SYMATTR InstName X2
SYMBOL FA 448 176 R0
SYMATTR InstName X3
SYMBOL FA 304 176 R0
SYMATTR InstName X4
SYMBOL voltage -144 -144 R0
WINDOW 123 0 0 Left 0
WINDOW 39 0 0 Left 0
SYMATTR InstName V1
SYMATTR Value 2.5
SYMBOL voltage -144 32 R0
WINDOW 123 0 0 Left 0
WINDOW 39 0 0 Left 0
WINDOW 3 28 88 Left 2
SYMATTR InstName V2
SYMATTR Value 2.5
SYMBOL voltage -144 272 R0
WINDOW 123 0 0 Left 0
WINDOW 39 0 0 Left 0
WINDOW 3 26 89 Left 2
SYMATTR InstName V3
SYMATTR Value 2.5
SYMBOL voltage -32 32 R0
WINDOW 3 19 82 Left 2
WINDOW 123 0 0 Left 0
WINDOW 39 0 0 Left 0
SYMATTR Value 2.5
SYMATTR InstName V4
SYMBOL voltage -32 272 R0
WINDOW 3 26 91 Left 2
WINDOW 123 0 0 Left 0
WINDOW 39 0 0 Left 0
SYMATTR Value 0
SYMATTR InstName V5
SYMBOL voltage 64 32 R0
WINDOW 3 25 82 Left 2
WINDOW 123 0 0 Left 0
WINDOW 39 0 0 Left 0
SYMATTR Value 2.5
SYMATTR InstName V6
SYMBOL voltage 64 272 R0
WINDOW 123 0 0 Left 0
WINDOW 39 0 0 Left 0
SYMATTR InstName V7
SYMATTR Value 2.5
SYMBOL voltage 160 32 R0
WINDOW 123 0 0 Left 0
WINDOW 39 0 0 Left 0
WINDOW 3 29 80 Left 2
SYMATTR InstName V8
SYMATTR Value 2.5
SYMBOL voltage 160 272 R0
WINDOW 123 0 0 Left 0
WINDOW 39 0 0 Left 0
SYMATTR Value 2.5
SYMATTR InstName V9
SYMBOL voltage -16 -144 R0
WINDOW 123 0 0 Left 0
WINDOW 39 0 0 Left 0
SYMATTR InstName V10
SYMATTR Value 2.5
TEXT -352 416 Left 2 !.op
