Version 4
SHEET 1 880 680
WIRE -64 96 -64 64
WIRE -32 96 -32 64
WIRE 80 96 80 64
WIRE 112 96 112 64
WIRE 224 96 224 64
WIRE 256 96 256 64
WIRE 384 96 384 64
WIRE 416 96 416 64
WIRE 32 144 0 144
WIRE 176 144 144 144
WIRE 320 144 288 144
WIRE 480 144 448 144
WIRE 32 224 32 144
WIRE 80 224 80 192
WIRE 80 224 32 224
WIRE 176 224 176 144
WIRE 224 224 224 192
WIRE 224 224 176 224
WIRE 320 224 320 144
WIRE 384 224 384 192
WIRE 384 224 320 224
WIRE -64 256 -64 192
WIRE -32 256 -32 192
WIRE 80 256 80 224
WIRE 112 256 112 192
WIRE 224 256 224 224
WIRE 256 256 256 192
WIRE 384 256 384 224
WIRE 416 256 416 192
FLAG 384 64 A0
IOPIN 384 64 In
FLAG 224 64 A1
IOPIN 224 64 In
FLAG 80 64 A2
IOPIN 80 64 In
FLAG -64 64 A3
IOPIN -64 64 In
FLAG -32 64 B3
IOPIN -32 64 In
FLAG 112 64 B2
IOPIN 112 64 In
FLAG 256 64 B1
IOPIN 256 64 In
FLAG 416 64 B0
IOPIN 416 64 In
FLAG 480 144 CIN
IOPIN 480 144 In
FLAG 416 256 S0
IOPIN 416 256 Out
FLAG 256 256 S1
IOPIN 256 256 Out
FLAG 112 256 S2
IOPIN 112 256 Out
FLAG -32 256 S3
IOPIN -32 256 Out
FLAG 80 256 C3
IOPIN 80 256 Out
FLAG -64 256 COUT
IOPIN -64 256 Out
FLAG 224 256 C2
IOPIN 224 256 Out
FLAG 384 256 C1
IOPIN 384 256 Out
FLAG 192 96 VDD
FLAG 352 96 VDD
FLAG 48 96 VDD
FLAG -96 96 VDD
SYMBOL FA 352 192 R0
SYMATTR InstName X1
SYMBOL FA 192 192 R0
SYMATTR InstName X2
SYMBOL FA 48 192 R0
SYMATTR InstName X3
SYMBOL FA -96 192 R0
SYMATTR InstName X4
