Version 4
SHEET 1 1068 680
WIRE 656 -192 608 -192
WIRE 656 0 656 -192
WIRE 784 0 656 0
WIRE 992 32 960 32
WIRE 784 80 656 80
WIRE 656 240 656 80
WIRE 656 240 608 240
FLAG -304 -240 IN0
FLAG -304 -64 IN1
FLAG -304 128 IN2
FLAG -304 336 IN3
FLAG -304 -160 0
FLAG -304 16 0
FLAG -304 208 0
FLAG -304 416 0
FLAG -800 208 0
FLAG -800 16 0
FLAG -800 -144 0
FLAG -800 -224 VDD
FLAG -800 -64 S0
FLAG -800 128 S1
FLAG 512 -288 VDD
FLAG 512 144 VDD
FLAG 864 -64 VDD
FLAG 432 -224 IN0
FLAG 432 208 IN1
FLAG 432 -144 IN2
FLAG 432 288 IN3
FLAG 512 -80 S0
FLAG 512 352 S0
FLAG 864 144 S1
FLAG 992 32 Y
IOPIN 992 32 In
SYMBOL voltage -304 -256 R0
WINDOW 123 0 0 Left 0
WINDOW 39 0 0 Left 0
SYMATTR InstName V1
SYMATTR Value 0
SYMBOL voltage -304 -80 R0
WINDOW 123 0 0 Left 0
WINDOW 39 0 0 Left 0
SYMATTR InstName V2
SYMATTR Value PULSE(0 5 0 1p 1p 7m 9m)
SYMBOL voltage -304 112 R0
WINDOW 123 0 0 Left 0
WINDOW 39 0 0 Left 0
SYMATTR InstName V3
SYMATTR Value PULSE(0 5 4m 1p 1p 10m 20m)
SYMBOL voltage -304 320 R0
WINDOW 123 0 0 Left 0
WINDOW 39 0 0 Left 0
SYMATTR InstName V4
SYMATTR Value 5
SYMBOL voltage -800 -240 R0
WINDOW 123 0 0 Left 0
WINDOW 39 0 0 Left 0
SYMATTR InstName V5
SYMATTR Value 5
SYMBOL voltage -800 -80 R0
WINDOW 123 0 0 Left 0
WINDOW 39 0 0 Left 0
SYMATTR InstName V6
SYMATTR Value PULSE(0 5 0 1p 1p 20m 40m)
SYMBOL voltage -800 112 R0
WINDOW 123 0 0 Left 0
WINDOW 39 0 0 Left 0
SYMATTR InstName V7
SYMATTR Value PULSE(0 5 0 1p 1p 10m 20m)
SYMBOL MUX_PTL 432 -224 R0
SYMATTR InstName X4
SYMBOL MUX_PTL 432 208 R0
SYMATTR InstName X5
SYMBOL MUX_PTL 784 0 R0
SYMATTR InstName X6
TEXT -832 456 Left 2 !.tran 50m
