Version 4
SHEET 1 1292 680
WIRE 880 -128 832 -128
WIRE 880 16 880 -128
WIRE 1008 16 880 16
WIRE 1168 32 1136 32
WIRE 1008 64 880 64
WIRE 880 176 880 64
WIRE 880 176 832 176
FLAG 80 -288 IN0
FLAG 80 -112 IN1
FLAG 80 80 IN2
FLAG 80 288 IN3
FLAG 80 -208 0
FLAG 80 -32 0
FLAG 80 160 0
FLAG 80 368 0
FLAG -416 160 0
FLAG -416 -32 0
FLAG -416 -192 0
FLAG -416 -272 VDD
FLAG -416 -112 S0
FLAG -416 80 S1
FLAG 768 -192 VDD
FLAG 768 112 VDD
FLAG 1072 -32 VDD
FLAG 704 -144 IN0
FLAG 704 160 IN1
FLAG 704 -96 IN2
FLAG 704 208 IN3
FLAG 768 -48 S0
FLAG 768 256 S0
FLAG 1072 112 S1
FLAG 1168 32 Y
IOPIN 1168 32 In
SYMBOL voltage 80 -304 R0
WINDOW 123 0 0 Left 0
WINDOW 39 0 0 Left 0
SYMATTR InstName V1
SYMATTR Value 0
SYMBOL voltage 80 -128 R0
WINDOW 123 0 0 Left 0
WINDOW 39 0 0 Left 0
SYMATTR InstName V2
SYMATTR Value PULSE(0 5 0 1p 1p 7m 9m)
SYMBOL voltage 80 64 R0
WINDOW 123 0 0 Left 0
WINDOW 39 0 0 Left 0
SYMATTR InstName V3
SYMATTR Value PULSE(0 5 4m 1p 1p 10m 20m)
SYMBOL voltage 80 272 R0
WINDOW 123 0 0 Left 0
WINDOW 39 0 0 Left 0
SYMATTR InstName V4
SYMATTR Value 5
SYMBOL voltage -416 -288 R0
WINDOW 123 0 0 Left 0
WINDOW 39 0 0 Left 0
SYMATTR InstName V5
SYMATTR Value 5
SYMBOL voltage -416 -128 R0
WINDOW 123 0 0 Left 0
WINDOW 39 0 0 Left 0
SYMATTR InstName V6
SYMATTR Value PULSE(0 5 0 1p 1p 20m 40m)
SYMBOL voltage -416 64 R0
WINDOW 123 0 0 Left 0
WINDOW 39 0 0 Left 0
SYMATTR InstName V7
SYMATTR Value PULSE(0 5 0 1p 1p 10m 20m)
SYMBOL MUX_TG 704 -48 R0
SYMATTR InstName X1
SYMBOL MUX_TG 704 256 R0
SYMATTR InstName X2
SYMBOL MUX_TG 1008 112 R0
SYMATTR InstName X3
TEXT -448 408 Left 2 !.tran 50m
